Version 4
SHEET 1 2280 3544
WIRE 96 96 96 48
WIRE 96 224 96 176
WIRE 464 224 96 224
WIRE 96 256 96 224
WIRE 144 272 96 272
WIRE 144 304 144 272
WIRE 144 304 96 304
WIRE 48 336 16 336
WIRE 464 336 464 224
WIRE 512 352 464 352
WIRE 512 384 512 352
WIRE 512 384 464 384
WIRE 1120 400 1008 400
WIRE 16 416 16 336
WIRE 272 416 16 416
WIRE 416 416 272 416
WIRE 1120 416 1120 400
WIRE 688 464 688 416
WIRE 768 464 768 416
WIRE 1008 480 1008 400
WIRE 96 512 96 352
WIRE 208 512 96 512
WIRE 464 512 464 432
WIRE 464 512 240 512
WIRE 208 528 208 512
WIRE 240 528 240 512
WIRE 192 560 144 560
WIRE 144 576 144 560
WIRE 688 592 688 544
WIRE 768 592 768 544
WIRE 464 608 464 512
WIRE 576 656 464 656
WIRE 224 688 224 592
WIRE 416 688 224 688
WIRE 576 704 576 656
WIRE 576 704 464 704
WIRE 96 736 96 512
WIRE 464 736 464 704
WIRE 832 736 464 736
WIRE 464 752 464 736
WIRE 1024 752 896 752
WIRE 832 768 768 768
WIRE 768 800 768 768
WIRE 768 816 768 800
WIRE 96 896 96 816
WIRE 464 896 464 832
FLAG 272 496 0
FLAG 96 896 0
FLAG 464 896 0
FLAG 768 592 0
FLAG 768 416 VDD
IOPIN 768 416 Out
FLAG 96 48 VDD
IOPIN 96 48 In
FLAG 256 560 VDD
IOPIN 256 560 In
FLAG 688 592 0
FLAG 688 416 VDD2
IOPIN 688 416 Out
FLAG 144 576 0
FLAG 864 720 VDD
FLAG 864 784 0
FLAG 1008 560 0
FLAG 1120 416 Vref
FLAG 768 800 Vref
FLAG 1024 752 OverCurrent
SYMBOL current 96 96 R0
SYMATTR InstName I1
SYMATTR Value PULSE(10m 100m 0 100u 100u 1f 200u)
SYMBOL voltage 272 400 R0
SYMATTR InstName V1
SYMATTR Value 2
SYMBOL res 80 720 R0
SYMATTR InstName R1
SYMATTR Value 2k
SYMBOL res 448 736 R0
SYMATTR InstName R2
SYMATTR Value 10k
SYMBOL voltage 768 448 R0
SYMATTR InstName V2
SYMATTR Value 2
SYMBOL voltage 688 560 R180
WINDOW 0 24 96 Left 2
WINDOW 3 24 16 Left 2
SYMATTR InstName V3
SYMATTR Value 2
SYMBOL pmos4 48 256 R0
SYMATTR InstName M1
SYMATTR Value2 l=180nm w=500m
SYMBOL pmos4 416 336 R0
SYMATTR InstName M2
SYMATTR Value2 l=180nm w=5m
SYMBOL nmos4 416 608 R0
SYMATTR InstName M3
SYMATTR Value2 l=0.16u w=2.5m
SYMBOL OpAmps/LTC7652 288 560 R90
SYMATTR InstName U1
SYMBOL OpAmps\\OP07 864 688 R0
SYMATTR InstName U2
SYMBOL voltage 1008 464 R0
WINDOW 123 0 0 Left 0
WINDOW 39 0 0 Left 0
SYMATTR InstName Vref
SYMATTR Value 0.7
TEXT 1528 768 Left 2 !.tran 0 10m 1u
TEXT 1328 768 Left 2 !.lib opamp.sub
TEXT 1312 808 Left 2 !.model NMOS NMOS\n+Level = 49\n+Lint = 4.e-08 Tox = 4.e-09 \n+Vth0 = 0.3999 Rdsw = 250 \n+lmin=1.8e-7 lmax=1.8e-7 wmin=1.8e-7 wmax=1.0e-4 Tref=27.0 version =3.1\n+Xj= 6.0000000E-08         Nch= 5.9500000E+17 \n+lln= 1.0000000            lwn= 1.0000000              wln= 0.00\n+wwn= 0.00                 ll= 0.00\n+lw= 0.00                  lwl= 0.00                   wint= 0.00\n+wl= 0.00                  ww= 0.00                    wwl= 0.00\n+Mobmod=  1                binunit= 2                  xl=  0\n+xw=  0                    binflag=  0\n+Dwg= 0.00                 Dwb= 0.00 \n+K1= 0.5613000               K2= 1.0000000E-02 \n+K3= 0.00                  Dvt0= 8.0000000             Dvt1= 0.7500000 \n+Dvt2= 8.0000000E-03       Dvt0w= 0.00                 Dvt1w= 0.00 \n+Dvt2w= 0.00               Nlx= 1.6500000E-07          W0= 0.00 \n+K3b= 0.00                 Ngate= 5.0000000E+20 \n+Vsat= 1.3800000E+05       Ua= -7.0000000E-10          Ub= 3.5000000E-18 \n+Uc= -5.2500000E-11        Prwb= 0.00 \n+Prwg= 0.00                Wr= 1.0000000               U0= 3.5000000E-02 \n+A0= 1.1000000             Keta= 4.0000000E-02         A1= 0.00 \n+A2= 1.0000000             Ags= -1.0000000E-02         B0= 0.00 \n+B1= 0.00 \n+Voff= -0.12350000          NFactor= 0.9000000          Cit= 0.00 \n+Cdsc= 0.00                Cdscb= 0.00                 Cdscd= 0.00 \n+Eta0= 0.2200000           Etab= 0.00                  Dsub= 0.8000000 \n+Pclm= 5.0000000E-02       Pdiblc1= 1.2000000E-02      Pdiblc2= 7.5000000E-03 \n+Pdiblcb= -1.3500000E-02   Drout= 1.7999999E-02        Pscbe1= 8.6600000E+08 \n+Pscbe2= 1.0000000E-20     Pvag= -0.2800000            Delta= 1.0000000E-02 \n+Alpha0= 0.00              Beta0= 30.0000000 \n+kt1= -0.3700000           kt2= -4.0000000E-02         At= 5.5000000E+04 \n+Ute= -1.4800000           Ua1= 9.5829000E-10          Ub1= -3.3473000E-19 \n+Uc1= 0.00                 Kt1l= 4.0000000E-09         Prt= 0.00 \n+Cj= 0.00365               Mj= 0.54                    Pb= 0.982\n+Cjsw= 7.9E-10             Mjsw= 0.31                  Php= 0.841\n+Cta= 0                    Ctp= 0                      Pta= 0\n+Ptp= 0                    JS=1.50E-08                 JSW=2.50E-13\n+N=1.0                     Xti=3.0                     Cgdo=2.786E-10\n+Cgso=2.786E-10            Cgbo=0.0E+00                Capmod= 2\n+NQSMOD= 0                 Elm= 5                      Xpart= 1\n+Cgsl= 1.6E-10             Cgdl= 1.6E-10               Ckappa= 2.886\n+Cf= 1.069e-10             Clc= 0.0000001              Cle= 0.6\n+Dlc= 4E-08                Dwc= 0                      Vfbcv= -1\n\n*\n* Predictive Technology Model Beta Version\n* 180nm PMOS SPICE Parametersv (normal one)\n*\n.model PMOS PMOS\n+Level = 49\n+Lint = 3.e-08 Tox = 4.2e-09 \n+Vth0 = -0.42 Rdsw = 450 \n+lmin=1.8e-7 lmax=1.8e-7 wmin=1.8e-7 wmax=1.0e-4 Tref=27.0 version =3.1\n+Xj= 7.0000000E-08         Nch= 5.9200000E+17 \n+lln= 1.0000000            lwn= 1.0000000              wln= 0.00\n+wwn= 0.00                 ll= 0.00\n+lw= 0.00                  lwl= 0.00                   wint= 0.00\n+wl= 0.00                  ww= 0.00                    wwl= 0.00\n+Mobmod=  1                binunit= 2                  xl= 0.00\n+xw= 0.00                  \n+binflag=  0               Dwg= 0.00                   Dwb= 0.00 \n+ACM= 0                    ldif=0.00                   hdif=0.00\n+rsh= 0                    rd= 0                       rs= 0\n+rsc= 0                    rdc= 0\n+K1= 0.5560000             K2= 0.00 \n+K3= 0.00                  Dvt0= 11.2000000            Dvt1= 0.7200000 \n+Dvt2= -1.0000000E-02      Dvt0w= 0.00                 Dvt1w= 0.00 \n+Dvt2w= 0.00               Nlx= 9.5000000E-08          W0= 0.00 \n+K3b= 0.00                 Ngate= 5.0000000E+20 \n+Vsat= 1.0500000E+05       Ua= -1.2000000E-10          Ub= 1.0000000E-18 \n+Uc= -2.9999999E-11        Prwb= 0.00 \n+Prwg= 0.00                Wr= 1.0000000               U0= 8.0000000E-03 \n+A0= 2.1199999             Keta= 2.9999999E-02         A1= 0.00 \n+A2= 0.4000000             Ags= -0.1000000             B0= 0.00 \n+B1= 0.00 \n+Voff= -6.40000000E-02      NFactor= 1.4000000          Cit= 0.00 \n+Cdsc= 0.00                Cdscb= 0.00                 Cdscd= 0.00 \n+Eta0= 8.5000000           Etab= 0.00                  Dsub= 2.8000000 \n+Pclm= 2.0000000           Pdiblc1= 0.1200000          Pdiblc2= 8.0000000E-05 \n+Pdiblcb= 0.1450000        Drout= 5.0000000E-02        Pscbe1= 1.0000000E-20 \n+Pscbe2= 1.0000000E-20     Pvag= -6.0000000E-02        Delta= 1.0000000E-02 \n+Alpha0= 0.00              Beta0= 30.0000000 \n+kt1= -0.3700000           kt2= -4.0000000E-02         At= 5.5000000E+04 \n+Ute= -1.4800000           Ua1= 9.5829000E-10          Ub1= -3.3473000E-19 \n+Uc1= 0.00                 Kt1l= 4.0000000E-09         Prt= 0.00 \n+Cj= 0.00138               Mj= 1.05                    Pb= 1.24\n+Cjsw= 1.44E-09            Mjsw= 0.43                  Php= 0.841\n+Cta= 0.00093              Ctp= 0                      Pta= 0.00153\n+Ptp= 0                    JS=1.50E-08                 JSW=2.50E-13\n+N=1.0                     Xti=3.0                     Cgdo=2.786E-10\n+Cgso=2.786E-10            Cgbo=0.0E+00                Capmod= 2\n+NQSMOD= 0                 Elm= 5                      Xpart= 1\n+Cgsl= 1.6E-10             Cgdl= 1.6E-10               Ckappa= 2.886\n+Cf= 1.058e-10             Clc= 0.0000001              Cle= 0.6\n+Dlc= 3E-08                Dwc= 0                      Vfbcv= -1
